CHEMBL187678
 OpenBabel04272013383D

 26 29  0  0  0  0  0  0  0  0999 V2000
   64.2630   37.2110   21.8790 C   0  0  0  0  0  0  0  0  0  0  0  0
   64.2740   35.9980   22.7410 C   0  0  0  0  0  0  0  0  0  0  0  0
   64.7160   35.8190   24.1100 C   0  0  0  0  0  0  0  0  0  0  0  0
   64.4880   34.4590   24.3590 C   0  0  0  0  0  0  0  0  0  0  0  0
   63.8900   33.9960   23.2100 N   0  0  0  0  0  0  0  0  0  0  0  0
   63.5520   33.0750   23.1300 H   0  0  0  0  0  0  0  0  0  0  0  0
   63.7950   34.8710   22.2130 N   0  0  0  0  0  0  0  0  0  0  0  0
   65.2100   36.8480   25.0370 C   0  0  0  0  0  0  0  0  0  0  0  0
   66.3190   36.5740   25.8520 C   0  0  0  0  0  0  0  0  0  0  0  0
   66.9800   37.5920   26.5380 C   0  0  0  0  0  0  0  0  0  0  0  0
   68.1980   37.2710   27.0880 O   0  0  0  0  0  0  0  0  0  0  0  0
   68.9900   38.4600   27.2020 C   0  0  0  0  0  0  0  0  0  0  0  0
   68.2020   39.4940   27.9860 C   0  0  0  0  0  0  0  0  0  0  0  0
   67.0410   39.9160   27.2500 O   0  0  0  0  0  0  0  0  0  0  0  0
   66.4490   38.8790   26.5780 C   0  0  0  0  0  0  0  0  0  0  0  0
   65.2950   39.1560   25.8550 C   0  0  0  0  0  0  0  0  0  0  0  0
   64.7130   38.1620   25.0500 C   0  0  0  0  0  0  0  0  0  0  0  0
   64.7360   33.4860   25.4450 C   0  0  0  0  0  0  0  0  0  0  0  0
   66.0450   33.0410   25.7520 C   0  0  0  0  0  0  0  0  0  0  0  0
   66.3120   32.2240   26.8520 C   0  0  0  0  0  0  0  0  0  0  0  0
   65.2630   31.8150   27.6690 C   0  0  0  0  0  0  0  0  0  0  0  0
   63.9630   32.2220   27.3750 C   0  0  0  0  0  0  0  0  0  0  0  0
   62.6680   31.6960   28.3810 Cl  0  0  0  0  0  0  0  0  0  0  0  0
   63.6990   33.0590   26.2850 C   0  0  0  0  0  0  0  0  0  0  0  0
   67.1050   33.4490   24.9760 O   0  0  0  0  0  0  0  0  0  0  0  0
   67.7450   34.0360   25.3290 H   0  0  0  0  0  0  0  0  0  0  0  0
  1  2  1  0  0  0  0
  2  3  1  0  0  0  0
  3  4  2  0  0  0  0
  3  8  1  0  0  0  0
  4 18  1  0  0  0  0
  5  4  1  0  0  0  0
  6  5  1  0  0  0  0
  7  2  2  0  0  0  0
  7  5  1  0  0  0  0
  8 17  2  0  0  0  0
  8  9  1  0  0  0  0
  9 10  2  0  0  0  0
 10 15  1  0  0  0  0
 10 11  1  0  0  0  0
 11 12  1  0  0  0  0
 12 13  1  0  0  0  0
 14 13  1  0  0  0  0
 15 14  1  0  0  0  0
 16 15  2  0  0  0  0
 17 16  1  0  0  0  0
 18 19  2  0  0  0  0
 18 24  1  0  0  0  0
 19 20  1  0  0  0  0
 20 21  2  0  0  0  0
 22 21  1  0  0  0  0
 22 23  1  0  0  0  0
 24 22  2  0  0  0  0
 25 26  1  0  0  0  0
 25 19  1  0  0  0  0
M  END
>  <MODEL>
1

>  <REMARK>
 VINA RESULT:      -9.6      0.000      0.000
  Name = CHEMBL187678
  4 active torsions:
  status: ('A' for Active; 'I' for Inactive)
    1  A    between atoms: C_1  and  C_2
    2  A    between atoms: C_5  and  C_6
    3  A    between atoms: C_12  and  O_13
    4  A    between atoms: C_14  and  C_15
                            x       y       z     vdW  Elec       q    Type
                         _______ _______ _______ _____ _____    ______ ____

>  <TORSDO>
F 3

>  <SCORE>
-9.6

>  <RMSD_LB>
0.000

>  <RMSD_UB>
0.000

$$$$
CHEMBL1092945
 OpenBabel04272013503D

 26 28  0  0  0  0  0  0  0  0999 V2000
   64.9800   38.1020   21.7470 C   0  0  0  0  0  0  0  0  0  0  0  0
   64.7040   36.8530   22.4940 C   0  0  0  0  0  0  0  0  0  0  0  0
   65.0650   36.3800   23.7560 C   0  0  0  0  0  0  0  0  0  0  0  0
   64.4450   35.0750   23.8460 C   0  0  0  0  0  0  0  0  0  0  0  0
   63.7940   34.7880   22.7010 N   0  0  0  0  0  0  0  0  0  0  0  0
   63.9400   35.8710   21.9410 N   0  0  0  0  0  0  0  0  0  0  0  0
   63.5310   35.9540   21.0500 H   0  0  0  0  0  0  0  0  0  0  0  0
   65.8750   37.1410   24.7200 C   0  0  0  0  0  0  0  0  0  0  0  0
   65.2710   37.7970   25.8050 C   0  0  0  0  0  0  0  0  0  0  0  0
   66.0390   38.3290   26.8470 C   0  0  0  0  0  0  0  0  0  0  0  0
   67.4200   38.1780   26.8300 C   0  0  0  0  0  0  0  0  0  0  0  0
   68.3510   38.6800   28.1880 Cl  0  0  0  0  0  0  0  0  0  0  0  0
   68.0460   37.5910   25.7360 C   0  0  0  0  0  0  0  0  0  0  0  0
   67.2780   37.1190   24.6640 C   0  0  0  0  0  0  0  0  0  0  0  0
   64.5010   34.0500   24.9070 C   0  0  0  0  0  0  0  0  0  0  0  0
   63.4110   33.6950   25.7050 C   0  0  0  0  0  0  0  0  0  0  0  0
   63.6020   32.9380   26.8590 C   0  0  0  0  0  0  0  0  0  0  0  0
   64.8430   32.3920   27.1580 C   0  0  0  0  0  0  0  0  0  0  0  0
   65.9150   32.6030   26.3070 C   0  0  0  0  0  0  0  0  0  0  0  0
   65.7460   33.4460   25.1990 C   0  0  0  0  0  0  0  0  0  0  0  0
   62.1310   34.0690   25.3970 O   0  0  0  0  0  0  0  0  0  0  0  0
   61.9720   34.6410   24.6710 H   0  0  0  0  0  0  0  0  0  0  0  0
   62.5470   32.7720   27.7180 O   0  0  0  0  0  0  0  0  0  0  0  0
   62.1610   33.5180   28.1350 H   0  0  0  0  0  0  0  0  0  0  0  0
   64.9560   31.6560   28.3040 O   0  0  0  0  0  0  0  0  0  0  0  0
   64.2930   31.7100   28.9630 H   0  0  0  0  0  0  0  0  0  0  0  0
  1  2  1  0  0  0  0
  2  3  2  0  0  0  0
  3  4  1  0  0  0  0
  3  8  1  0  0  0  0
  4 15  1  0  0  0  0
  5  4  2  0  0  0  0
  6  2  1  0  0  0  0
  6  5  1  0  0  0  0
  7  6  1  0  0  0  0
  8  9  1  0  0  0  0
  9 10  2  0  0  0  0
 11 10  1  0  0  0  0
 11 12  1  0  0  0  0
 13 11  2  0  0  0  0
 14  8  2  0  0  0  0
 14 13  1  0  0  0  0
 15 20  2  0  0  0  0
 15 16  1  0  0  0  0
 16 17  2  0  0  0  0
 17 18  1  0  0  0  0
 17 23  1  0  0  0  0
 18 25  1  0  0  0  0
 19 18  2  0  0  0  0
 20 19  1  0  0  0  0
 21 16  1  0  0  0  0
 22 21  1  0  0  0  0
 23 24  1  0  0  0  0
 25 26  1  0  0  0  0
M  END
>  <MODEL>
1

>  <REMARK>
 VINA RESULT:      -9.9      0.000      0.000
  Name = CHEMBL1092945
  6 active torsions:
  status: ('A' for Active; 'I' for Inactive)
    1  A    between atoms: C_1  and  C_2
    2  A    between atoms: C_5  and  C_6
    3  A    between atoms: C_9  and  O_10
    4  A    between atoms: C_11  and  O_12
    5  A    between atoms: C_13  and  O_14
    6  A    between atoms: C_15  and  C_16
                            x       y       z     vdW  Elec       q    Type
                         _______ _______ _______ _____ _____    ______ ____

>  <TORSDO>
F 5

>  <SCORE>
-9.9

>  <RMSD_LB>
0.000

>  <RMSD_UB>
0.000

$$$$
CHEMBL577176
 OpenBabel04272013503D

 25 28  0  0  0  0  0  0  0  0999 V2000
   64.8740   36.2420   23.8050 C   0  0  0  0  0  0  0  0  0  0  0  0
   64.3760   34.8880   23.9020 C   0  0  0  0  0  0  0  0  0  0  0  0
   63.7160   34.6740   22.7110 C   0  0  0  0  0  0  0  0  0  0  0  0
   63.8440   35.8170   21.9860 N   0  0  0  0  0  0  0  0  0  0  0  0
   63.4660   35.9260   21.0840 H   0  0  0  0  0  0  0  0  0  0  0  0
   64.5310   36.7760   22.6110 N   0  0  0  0  0  0  0  0  0  0  0  0
   64.4360   33.8850   24.9590 C   0  0  0  0  0  0  0  0  0  0  0  0
   63.3160   33.6760   25.7870 C   0  0  0  0  0  0  0  0  0  0  0  0
   63.4610   32.8590   26.8900 C   0  0  0  0  0  0  0  0  0  0  0  0
   62.4910   32.5860   27.8030 O   0  0  0  0  0  0  0  0  0  0  0  0
   63.2110   31.7240   28.7100 C   0  0  0  0  0  0  0  0  0  0  0  0
   64.5990   31.5530   28.3570 O   0  0  0  0  0  0  0  0  0  0  0  0
   64.6570   32.2580   27.1960 C   0  0  0  0  0  0  0  0  0  0  0  0
   65.7630   32.3990   26.3900 C   0  0  0  0  0  0  0  0  0  0  0  0
   65.6360   33.1960   25.2440 C   0  0  0  0  0  0  0  0  0  0  0  0
   67.1520   38.3460   26.7610 C   0  0  0  0  0  0  0  0  0  0  0  0
   66.0270   38.9530   26.2240 C   0  0  0  0  0  0  0  0  0  0  0  0
   65.3350   38.3330   25.1810 C   0  0  0  0  0  0  0  0  0  0  0  0
   65.6770   37.0420   24.7500 C   0  0  0  0  0  0  0  0  0  0  0  0
   66.8450   36.4680   25.2890 C   0  0  0  0  0  0  0  0  0  0  0  0
   67.5910   37.1210   26.2780 C   0  0  0  0  0  0  0  0  0  0  0  0
   67.8190   39.0050   27.7490 O   0  0  0  0  0  0  0  0  0  0  0  0
   68.2520   38.5220   28.4260 H   0  0  0  0  0  0  0  0  0  0  0  0
   64.3580   39.1020   24.6100 O   0  0  0  0  0  0  0  0  0  0  0  0
   63.5530   39.2510   25.0670 H   0  0  0  0  0  0  0  0  0  0  0  0
  1  2  1  0  0  0  0
  1 19  1  0  0  0  0
  2  7  1  0  0  0  0
  3  2  2  0  0  0  0
  4  6  1  0  0  0  0
  4  3  1  0  0  0  0
  5  4  1  0  0  0  0
  6  1  2  0  0  0  0
  7 15  1  0  0  0  0
  7  8  2  0  0  0  0
  8  9  1  0  0  0  0
  9 13  2  0  0  0  0
  9 10  1  0  0  0  0
 10 11  1  0  0  0  0
 12 11  1  0  0  0  0
 13 12  1  0  0  0  0
 14 13  1  0  0  0  0
 15 14  2  0  0  0  0
 16 22  1  0  0  0  0
 17 16  1  0  0  0  0
 18 17  2  0  0  0  0
 19 18  1  0  0  0  0
 19 20  2  0  0  0  0
 20 21  1  0  0  0  0
 21 16  2  0  0  0  0
 22 23  1  0  0  0  0
 24 25  1  0  0  0  0
 24 18  1  0  0  0  0
M  END
>  <MODEL>
1

>  <REMARK>
 VINA RESULT:      -9.8      0.000      0.000
  Name = CHEMBL577176
  4 active torsions:
  status: ('A' for Active; 'I' for Inactive)
    1  A    between atoms: O_1  and  C_2
    2  A    between atoms: C_5  and  C_9
    3  A    between atoms: C_6  and  O_7
    4  A    between atoms: C_13  and  C_14
                            x       y       z     vdW  Elec       q    Type
                         _______ _______ _______ _____ _____    ______ ____

>  <TORSDO>
F 4

>  <SCORE>
-9.8

>  <RMSD_LB>
0.000

>  <RMSD_UB>
0.000

$$$$

